testcases/testcases_PowerModels/RTS.raw
     0,   100.0,    30,     0,     0,   60.00 / PSS(R)E 30
 IEEE RTS79                                                  
                                                             
     1,'BUS_001     ',   1.0000,  2,     0.000,     0.000,   1,    1,   1.03500,     0.0000,   1
     2,'BUS_002     ',   1.0000,  2,     0.000,     0.000,   1,    1,   1.03500,     0.0000,   1
     3,'BUS_003     ',   1.0000,  1,     0.000,     0.000,   1,    1,   1.00000,     0.0000,   1
     4,'BUS_004     ',   1.0000,  1,     0.000,     0.000,   1,    1,   1.00000,     0.0000,   1
     5,'BUS_005     ',   1.0000,  1,     0.000,     0.000,   1,    1,   1.00000,     0.0000,   1
     6,'BUS_006     ',   1.0000,  1,     0.000,  -100.000,   1,    1,   1.00000,     0.0000,   1
     7,'BUS_007     ',   1.0000,  2,     0.000,     0.000,   1,    1,   1.02500,     0.0000,   1
     8,'BUS_008     ',   1.0000,  1,     0.000,     0.000,   1,    1,   1.00000,     0.0000,   1
     9,'BUS_009     ',   1.0000,  1,     0.000,     0.000,   1,    1,   1.00000,     0.0000,   1
    10,'BUS_010     ',   1.0000,  1,     0.000,     0.000,   1,    1,   1.00000,     0.0000,   1
    11,'BUS_011     ',   1.0000,  1,     0.000,     0.000,   2,    1,   1.00000,     0.0000,   1
    12,'BUS_012     ',   1.0000,  1,     0.000,     0.000,   2,    1,   1.00000,     0.0000,   1
    13,'BUS_013     ',   1.0000,  3,     0.000,     0.000,   2,    1,   1.02000,     0.0000,   1
    14,'BUS_014     ',   1.0000,  2,     0.000,     0.000,   2,    1,   0.98000,     0.0000,   1
    15,'BUS_015     ',   1.0000,  2,     0.000,     0.000,   2,    1,   1.01400,     0.0000,   1
    16,'BUS_016     ',   1.0000,  2,     0.000,     0.000,   2,    1,   1.01700,     0.0000,   1
    17,'BUS_017     ',   1.0000,  1,     0.000,     0.000,   2,    1,   1.00000,     0.0000,   1
    18,'BUS_018     ',   1.0000,  2,     0.000,     0.000,   2,    1,   1.05000,     0.0000,   1
    19,'BUS_019     ',   1.0000,  1,     0.000,     0.000,   2,    1,   1.00000,     0.0000,   1
    20,'BUS_020     ',   1.0000,  1,     0.000,     0.000,   2,    1,   1.00000,     0.0000,   1
    21,'BUS_021     ',   1.0000,  2,     0.000,     0.000,   2,    1,   1.05000,     0.0000,   1
    22,'BUS_022     ',   1.0000,  2,     0.000,     0.000,   2,    1,   1.05000,     0.0000,   1
    23,'BUS_023     ',   1.0000,  2,     0.000,     0.000,   2,    1,   1.05000,     0.0000,   1
    24,'BUS_024     ',   1.0000,  1,     0.000,     0.000,   2,    1,   1.00000,     0.0000,   1
 0  / END OF BUS DATA, BEGIN LOAD DATA
     1,'1 ', 1,   1,    1,    108.000,     22.000,     0.000,       0.000,       0.000,     0.000,   1
     2,'1 ', 1,   1,    1,     97.000,     20.000,     0.000,       0.000,       0.000,     0.000,   1
     3,'1 ', 1,   1,    1,    180.000,     37.000,     0.000,       0.000,       0.000,     0.000,   1
     4,'1 ', 1,   1,    1,     74.000,     15.000,     0.000,       0.000,       0.000,     0.000,   1
     5,'1 ', 1,   1,    1,     71.000,     14.000,     0.000,       0.000,       0.000,     0.000,   1
     6,'1 ', 1,   1,    1,    136.000,     28.000,     0.000,       0.000,       0.000,     0.000,   1
     7,'1 ', 1,   1,    1,    125.000,     25.000,     0.000,       0.000,       0.000,     0.000,   1
     8,'1 ', 1,   1,    1,    171.000,     35.000,     0.000,       0.000,       0.000,     0.000,   1
     9,'1 ', 1,   1,    1,    175.000,     36.000,     0.000,       0.000,       0.000,     0.000,   1
    10,'1 ', 1,   1,    1,    195.000,     40.000,     0.000,       0.000,       0.000,     0.000,   1
    13,'1 ', 1,   2,    1,    265.000,     54.000,     0.000,       0.000,       0.000,     0.000,   1
    14,'1 ', 1,   2,    1,    194.000,     39.000,     0.000,       0.000,       0.000,     0.000,   1
    15,'1 ', 1,   2,    1,    317.000,     64.000,     0.000,       0.000,       0.000,     0.000,   1
    16,'1 ', 1,   2,    1,    100.000,     20.000,     0.000,       0.000,       0.000,     0.000,   1
    18,'1 ', 1,   2,    1,    333.000,     68.000,     0.000,       0.000,       0.000,     0.000,   1
    19,'1 ', 1,   2,    1,    181.000,     37.000,     0.000,       0.000,       0.000,     0.000,   1
    20,'1 ', 1,   2,    1,    128.000,     26.000,     0.000,       0.000,       0.000,     0.000,   1
 0  / END OF LOAD DATA, BEGIN GENERATOR DATA
     1,'1 ',   152.000,     28.200,     80.000,    -50.000,    1.0350,      0,    100.000,      0.000,      0.100,    0.0000,    0.0000,    1.0000,  1,   100.0,     192.000,       0.000,    1,    1.000,     0,    0.000,     0,    0.000,     0,    0.000, 
     2,'1 ',   152.000,     14.000,     80.000,    -50.000,    1.0350,      0,    100.000,      0.000,      0.100,    0.0000,    0.0000,    1.0000,  1,   100.0,     192.000,       0.000,    1,    1.000,     0,    0.000,     0,    0.000,     0,    0.000, 
     7,'1 ',   240.000,     51.600,    180.000,      0.000,    1.0250,      0,    100.000,      0.000,      0.100,    0.0000,    0.0000,    1.0000,  1,   100.0,     300.000,       0.000,    1,    1.000,     0,    0.000,     0,    0.000,     0,    0.000, 
    13,'1 ',   285.300,    122.100,    240.000,      0.000,    1.0200,      0,    100.000,      0.000,      0.100,    0.0000,    0.0000,    1.0000,  1,   100.0,     591.000,       0.000,    1,    1.000,     0,    0.000,     0,    0.000,     0,    0.000, 
    14,'1 ',     0.000,     13.700,    200.000,    -50.000,    0.9800,      0,    100.000,      0.000,      0.100,    0.0000,    0.0000,    1.0000,  1,   100.0,    9999.000,       0.000,    1,    1.000,     0,    0.000,     0,    0.000,     0,    0.000, 
    15,'1 ',   215.000,      0.050,    110.000,    -50.000,    1.0140,      0,    100.000,      0.000,      0.100,    0.0000,    0.0000,    1.0000,  1,   100.0,     215.000,       0.000,    1,    1.000,     0,    0.000,     0,    0.000,     0,    0.000, 
    16,'1 ',   155.000,     25.220,     80.000,    -50.000,    1.0170,      0,    100.000,      0.000,      0.100,    0.0000,    0.0000,    1.0000,  1,   100.0,     155.000,       0.000,    1,    1.000,     0,    0.000,     0,    0.000,     0,    0.000, 
    18,'1 ',   400.000,    137.400,    200.000,    -50.000,    1.0500,      0,    100.000,      0.000,      0.100,    0.0000,    0.0000,    1.0000,  1,   100.0,     400.000,       0.000,    1,    1.000,     0,    0.000,     0,    0.000,     0,    0.000, 
    21,'1 ',   400.000,    108.200,    200.000,    -50.000,    1.0500,      0,    100.000,      0.000,      0.100,    0.0000,    0.0000,    1.0000,  1,   100.0,     400.000,       0.000,    1,    1.000,     0,    0.000,     0,    0.000,     0,    0.000, 
    22,'1 ',   300.000,    -29.800,     96.000,    -60.000,    1.0500,      0,    100.000,      0.000,      0.100,    0.0000,    0.0000,    1.0000,  1,   100.0,     300.000,       0.000,    1,    1.000,     0,    0.000,     0,    0.000,     0,    0.000, 
    23,'1 ',   660.000,      0.000,    310.000,   -125.000,    1.0500,      0,    100.000,      0.000,      0.100,    0.0000,    0.0000,    1.0000,  1,   100.0,     660.000,       0.000,    1,    1.000,     0,    0.000,     0,    0.000,     0,    0.000, 
 0  / END OF GENERATOR DATA, BEGIN BRANCH DATA
     1,     2,'1 ', 0.26000E-02,  0.13900E-01,   0.46110,   175.0,   193.0,   200.0,   0.00000,   0.00000,   0.00000,   0.00000,  1,     0.00,   0,   1.0000
     1,     3,'1 ', 0.54600E-01,  0.21120E+00,   0.05720,   175.0,   208.0,   220.0,   0.00000,   0.00000,   0.00000,   0.00000,  1,     0.00,   0,   1.0000
     1,     5,'1 ', 0.21800E-01,  0.84500E-01,   0.02290,   175.0,   208.0,   220.0,   0.00000,   0.00000,   0.00000,   0.00000,  1,     0.00,   0,   1.0000
     2,     4,'1 ', 0.32800E-01,  0.12670E+00,   0.03430,   175.0,   208.0,   220.0,   0.00000,   0.00000,   0.00000,   0.00000,  1,     0.00,   0,   1.0000
     2,     6,'1 ', 0.49700E-01,  0.19200E+00,   0.05200,   175.0,   208.0,   220.0,   0.00000,   0.00000,   0.00000,   0.00000,  1,     0.00,   0,   1.0000
     3,     9,'1 ', 0.30800E-01,  0.11900E+00,   0.03220,   175.0,   208.0,   220.0,   0.00000,   0.00000,   0.00000,   0.00000,  1,     0.00,   0,   1.0000
     3,    24,'1 ', 0.23000E-02,  0.83900E-01,   0.00000,   400.0,   510.0,   600.0,   0.00000,   0.00000,   0.00000,   0.00000,  1,     0.00,   0,   1.0000
     4,     9,'1 ', 0.26800E-01,  0.10370E+00,   0.02810,   175.0,   208.0,   220.0,   0.00000,   0.00000,   0.00000,   0.00000,  1,     0.00,   0,   1.0000
     5,    10,'1 ', 0.22800E-01,  0.88300E-01,   0.02390,   175.0,   208.0,   220.0,   0.00000,   0.00000,   0.00000,   0.00000,  1,     0.00,   0,   1.0000
     6,    10,'1 ', 0.13900E-01,  0.60500E-01,   2.45900,   175.0,   193.0,   200.0,   0.00000,   0.00000,   0.00000,   0.00000,  1,     0.00,   0,   1.0000
     7,     8,'1 ', 0.15900E-01,  0.61400E-01,   0.01660,   175.0,   208.0,   220.0,   0.00000,   0.00000,   0.00000,   0.00000,  1,     0.00,   0,   1.0000
     8,     9,'1 ', 0.42700E-01,  0.16510E+00,   0.04470,   175.0,   208.0,   220.0,   0.00000,   0.00000,   0.00000,   0.00000,  1,     0.00,   0,   1.0000
     8,    10,'1 ', 0.42700E-01,  0.16510E+00,   0.04470,   175.0,   208.0,   220.0,   0.00000,   0.00000,   0.00000,   0.00000,  1,     0.00,   0,   1.0000
    11,    13,'1 ', 0.61000E-02,  0.47600E-01,   0.09990,   500.0,   600.0,   625.0,   0.00000,   0.00000,   0.00000,   0.00000,  1,     0.00,   0,   1.0000
    11,    14,'1 ', 0.54000E-02,  0.41800E-01,   0.08790,   500.0,   600.0,   625.0,   0.00000,   0.00000,   0.00000,   0.00000,  1,     0.00,   0,   1.0000
    12,    13,'1 ', 0.61000E-02,  0.47600E-01,   0.09990,   500.0,   600.0,   625.0,   0.00000,   0.00000,   0.00000,   0.00000,  1,     0.00,   0,   1.0000
    12,    23,'1 ', 0.12400E-01,  0.96600E-01,   0.20300,   500.0,   600.0,   625.0,   0.00000,   0.00000,   0.00000,   0.00000,  1,     0.00,   0,   1.0000
    13,    23,'1 ', 0.11100E-01,  0.86500E-01,   0.18180,   500.0,   600.0,   625.0,   0.00000,   0.00000,   0.00000,   0.00000,  1,     0.00,   0,   1.0000
    14,    16,'1 ', 0.50000E-02,  0.38900E-01,   0.08180,   500.0,   600.0,   625.0,   0.00000,   0.00000,   0.00000,   0.00000,  1,     0.00,   0,   1.0000
    15,    16,'1 ', 0.22000E-02,  0.17300E-01,   0.03640,   500.0,   600.0,   625.0,   0.00000,   0.00000,   0.00000,   0.00000,  1,     0.00,   0,   1.0000
    15,    21,'1 ', 0.63000E-02,  0.49000E-01,   0.10300,   500.0,   600.0,   625.0,   0.00000,   0.00000,   0.00000,   0.00000,  1,     0.00,   0,   1.0000
    15,    21,'2 ', 0.63000E-02,  0.49000E-01,   0.10300,   500.0,   600.0,   625.0,   0.00000,   0.00000,   0.00000,   0.00000,  1,     0.00,   0,   1.0000
    15,    24,'1 ', 0.67000E-02,  0.51900E-01,   0.10910,   500.0,   600.0,   625.0,   0.00000,   0.00000,   0.00000,   0.00000,  1,     0.00,   0,   1.0000
    16,    17,'1 ', 0.33000E-02,  0.25900E-01,   0.05450,   500.0,   600.0,   625.0,   0.00000,   0.00000,   0.00000,   0.00000,  1,     0.00,   0,   1.0000
    16,    19,'1 ', 0.30000E-02,  0.23100E-01,   0.04850,   500.0,   600.0,   625.0,   0.00000,   0.00000,   0.00000,   0.00000,  1,     0.00,   0,   1.0000
    17,    18,'1 ', 0.18000E-02,  0.14400E-01,   0.03030,   500.0,   600.0,   625.0,   0.00000,   0.00000,   0.00000,   0.00000,  1,     0.00,   0,   1.0000
    17,    22,'1 ', 0.13500E-01,  0.10530E+00,   0.22120,   500.0,   600.0,   625.0,   0.00000,   0.00000,   0.00000,   0.00000,  1,     0.00,   0,   1.0000
    18,    21,'1 ', 0.33000E-02,  0.25900E-01,   0.05450,   500.0,   600.0,   625.0,   0.00000,   0.00000,   0.00000,   0.00000,  1,     0.00,   0,   1.0000
    18,    21,'2 ', 0.33000E-02,  0.25900E-01,   0.05450,   500.0,   600.0,   625.0,   0.00000,   0.00000,   0.00000,   0.00000,  1,     0.00,   0,   1.0000
    19,    20,'1 ', 0.51000E-02,  0.39600E-01,   0.08330,   500.0,   600.0,   625.0,   0.00000,   0.00000,   0.00000,   0.00000,  1,     0.00,   0,   1.0000
    19,    20,'2 ', 0.51000E-02,  0.39600E-01,   0.08330,   500.0,   600.0,   625.0,   0.00000,   0.00000,   0.00000,   0.00000,  1,     0.00,   0,   1.0000
    20,    23,'1 ', 0.28000E-02,  0.21600E-01,   0.04550,   500.0,   600.0,   625.0,   0.00000,   0.00000,   0.00000,   0.00000,  1,     0.00,   0,   1.0000
    20,    23,'2 ', 0.28000E-02,  0.21600E-01,   0.04550,   500.0,   600.0,   625.0,   0.00000,   0.00000,   0.00000,   0.00000,  1,     0.00,   0,   1.0000
    21,    22,'1 ', 0.87000E-02,  0.67800E-01,   0.14240,   500.0,   600.0,   625.0,   0.00000,   0.00000,   0.00000,   0.00000,  1,     0.00,   0,   1.0000
 0  / END OF BRANCH DATA, BEGIN TRANSFORMER DATA
     9,     11,      0,'1 ', 1, 1, 1,      0.000,      0.000, 1, '            ', 1,    0,   1.00000
 0.23000E-02,  0.83900E-01,    100.000
  1.03000,   0.00000,   0.00000,    400.00,    510.00,    600.00,  0,       0,      1.03000,      1.03000,      0.00000,      0.00000,  0,  0,   0.00000,   0.00000
  1.00000,   0.00000
     9,     12,      0,'1 ', 1, 1, 1,      0.000,      0.000, 1, '            ', 1,    0,   1.00000
 0.23000E-02,  0.83900E-01,    100.000
  1.03000,   0.00000,   0.00000,    400.00,    510.00,    600.00,  0,       0,      1.03000,      1.03000,      0.00000,      0.00000,  0,  0,   0.00000,   0.00000
  1.00000,   0.00000
    10,     11,      0,'1 ', 1, 1, 1,      0.000,      0.000, 1, '            ', 1,    0,   1.00000
 0.23000E-02,  0.83900E-01,    100.000
  1.01500,   0.00000,   0.00000,    400.00,    510.00,    600.00,  0,       0,      1.01500,      1.01500,      0.00000,      0.00000,  0,  0,   0.00000,   0.00000
  1.00000,   0.00000
    10,     12,      0,'1 ', 1, 1, 1,      0.000,      0.000, 1, '            ', 1,    0,   1.00000
 0.23000E-02,  0.83900E-01,    100.000
  1.01500,   0.00000,   0.00000,    400.00,    510.00,    600.00,  0,       0,      1.01500,      1.01500,      0.00000,      0.00000,  0,  0,   0.00000,   0.00000
  1.00000,   0.00000
 0  / END OF TRANSFORMER DATA, BEGIN AREA DATA
     1,     0,     0.000,     0.000, 'Area 138  '
     2,     0,     0.000,     0.000, 'Area 230  '
 0  / END OF AREA DATA, BEGIN TWO-TERMINAL DC DATA
 0  / END OF TWO-TERMINAL DC DATA, BEGIN VSC DATA
 0  / END OF VSC DATA, BEGIN SWITCHED SHUNT DATA
 0 / END OF SWITCHED SHUNT DATA, BEGIN IMPEDANCE CORRECTION DATA
 0 / END OF IMPEDANCE CORRECTION DATA, BEGIN MULTI-TERMINAL DC DATA
 0 / END OF MULTI-TERMINAL DC DATA, BEGIN MULTI-SECTION LINE DATA
 0 / END OF MULTI-SECTION LINE DATA, BEGIN ZONE DATA
 0 / END OF ZONE DATA, BEGIN INTER-AREA TRANSFER DATA
 0 / END OF INTER-AREA TRANSFER DATA, BEGIN OWNER DATA
 0 / END OF OWNER DATA, BEGIN FACTS CONTROL DEVICE DATA
 0 / END OF FACTS CONTROL DEVICE DATA
